soil_decomp_method = 'MIMICSWieder2015'
hist_fields_list_file = .true.
hist_dov2xy    = .true., .true.
! Even though only 2 history tapes are defined here, set ndens to 1 for up to 6 history
! tapes, for the sake of mods that extend these default mods and may add other history tapes
 hist_ndens     = 1,1,1,1,1,1
 hist_nhtfrq    = 1,1
 hist_mfilt     = 1,1
 paramfile = '/cluster/projects/nn2806k/elisacw/parameters/ctsm51_densdep_fi_17.09.24.nc'
