hist_dov2xy    = .true., .true.
! Even though only 2 history tapes are defined here, set ndens to 1 for up to 6 history
! tapes, for the sake of mods that extend these default mods and may add other history tapes
 hist_nhtfrq    = 1,1,1,1,1,1,1
 hist_mfilt     = 1,1,1,1,1,1,1
! Add FCO2 because few (if any) tests send this flux to the coupler, so it isn't checked via cpl hist files
 hist_fincl1   += 'FCO2'

 use_ssre = .true.
 paramfile = '/cluster/projects/nn2806k/elisacw/parameters/clm_params_mimicsplus_netcdf5_11.09.24.nc'


soil_decomp_method = 'MIMICSplusAas2023'
hist_fincl1 += 'TBOT'
