soil_decomp_method = 'MIMICSplusAas2023'
